! This is for oxidant (provided by Fabien: orginal name: MEGA2_SO2)
! 
 &dimparam
 iy     = 90,
 jx     = 120,
 kz     = 18,
 nsg    = 1,
 /
 &geoparam
 iproj = 'LAMCON',
 ds = 50.0,
 ptop = 5.0,
 clat = 48,
 clon = 20,
 plat = 48.,
 plon = 20.,
 truelatl = 30.0,
 truelath = 60,
 /
 &terrainparam
 domname = 'MEGAPOLI2',
 lakedpth = .false.,
 ltexture = .true.,
 fudge_lnd   = .false.,
 fudge_lnd_s = .false.,
 fudge_tex   = .false.,
 fudge_tex_s = .false.,
 dirter = 'input',
 inpter = 'RCMDATA',
 /
 &debugparam
 debug_level = 1
 /
 &boundaryparam
 nspgx  = 12,
 nspgd  = 12,
 /
 &globdatparam
 ibdyfrq =     6,
 ssttyp = 'ERSST',
 dattyp = 'EIN15',
 gdate1 = 2004120100,
 gdate2 = 2006010100,
 dirglob = 'input',
 inpglob = 'RCMDATA',
 /
 &globwindow
 lat0 = 0.0
 lat1 = 0.0
 lon0 = 0.0
 lon1 = 0.0
 /
 &restartparam
 ifrest  = .false. ,
 mdate0  = 2004120100,
 mdate1  = 2004120100,
 mdate2  = 2006010100,
 /
 &timeparam
 dtrad   =    30.,
 dtabem  =    18.,
 dtsrf   =   600.,
 dt      =   150.,
 /
 &outparam
 ifsave  = .true. ,
   savfrq  =    48.,
 ifatm  = .true. ,
   atmfrq  =     6.,
 ifrad   = .true. ,
   radfrq  =     6.,
 ifsrf   = .true. ,
 ifsub   = .true. ,
   srffrq  =     3.,
 ifchem  = .true.,
 ifopt   = .true.,
   chemfrq =     6.,
 dirout='/lustre/fsolmon/regcm/MEGAPOLI/output_SO2'
 /
 &physicsparam
 iboudy   = 5,
 ibltyp   = 1,
 icup_lnd = 2,
 icup_ocn = 2,
 ipptls   = 1,
 iocnflx  = 2,
 ipgf     = 0,
 iemiss   = 0,
 lakemod  = 0,
 ichem    = 1,
 idesseas = 0,
 iconvlwp = 0,
 /
 &subexparam
 qck1land =   .250E-03,
 qck1oce  =   .250E-03,
 cevaplnd =   .100E-02,
 caccrlnd =      3.000,
 cftotmax =      0.75,
 /
 &grellparam
 igcc = 2,
 /
 &holtslagparam
 /
 &chemparam
 chemsimtype = 'SULF   ',
 idirect   =    1,
 /
 &clm_inparm
 fpftcon = 'pft-physiology.c130503.nc',
 fsnowoptics = 'snicar_optics_5bnd_c090915.nc',
 fsnowaging = 'snicar_drdt_bst_fit_60_c070416.nc',
 /
 &clm_soilhydrology_inparm
 /
 &clm_hydrology1_inparm
 /
