! small European domain
 &dimparam
 iy     = 34,
 jx     = 64,
 kz     = 18,
 nsg    = 1,
 /
 &geoparam
 iproj = 'LAMCON',
 ds = 60.0,
 ptop = 5.0,
 clat = 45.39,
 clon = 13.48,
 plat = 45.39,
 plon = 13.48,
 truelatl = 30.0,
 truelath = 60.0,
 i_band = 0,
 /
 &terrainparam
 domname = 'test_001',
 smthbdy = .false.,
 lakedpth = .false.,
 fudge_lnd   = .false.,
 fudge_lnd_s = .false.,
 fudge_tex   = .false.,
 fudge_tex_s = .false.,
 dirter = '/set/this/to/where/your/domain/file/is',
 inpter = '/set/this/to/where/your/surface/dataset/is',
 /
 &debugparam
 debug_level = 1,
 dbgfrq = 3,
 /
 &boundaryparam
 nspgx  = 12,
 nspgd  = 12,
 /
 &globdatparam
 ibdyfrq = 6,
 ssttyp = 'OI_WK',
 dattyp = 'EIN15',
 gdate1 = 1990060100,
 gdate2 = 1990070100,
 dirglob = '/set/this/to/where/your/icbc/for/model/is',
 inpglob = '/set/this/to/where/your/input/global/data/is',
 /
 &globwindow
 lat0 = 0.0
 lat1 = 0.0
 lon0 = 0.0
 lon1 = 0.0
 /
 &restartparam
 ifrest  = .false. ,
 mdate0  = 1990060100,
 mdate1  = 1990060100,
 mdate2  = 1990060600,
 /
 &timeparam
 dtrad   =    30.,
 dtabem  =    18.,
 dtsrf   =   600.,
 dt      =   150.,
 /
 &outparam
 ifsave  = .true. ,
   savfrq  =    0.,
 ifatm  = .true. ,
   atmfrq  =     6.,
 ifrad   = .true. ,
   radfrq  =     6.,
 ifsrf   = .true. ,
 ifsub   = .true. ,
   srffrq  =     3.,
 ifchem  = .false.,
   chemfrq =     6.,
 dirout='/set/this/to/where/your/output/files/will/be/written'
 /
 &physicsparam
 iboudy  =          5,
 ibltyp  =          1,
 icup_lnd =         4,
 icup_ocn =         4,
   igcc    =        1,
 ipptls  =          1,
 iocnflx =          2,
 ipgf    =          0,
 iemiss  =          0,
 lakemod =          0,
 ichem   =          0,
 scenario = 'A1B',
 idcsst = 0,
 iseaice = 0,
 idesseas = 0,
 iconvlwp = 0,
 /
 &subexparam
 qck1land =   .250E-03,
 qck1oce  =   .250E-03,
 cevaplnd =   .100E-02,
 caccrlnd =      3.000,
 cftotmax =      0.75,
 /
 &grellparam
 /
 &emanparam
 elcrit_ocn  = 0.0011D0,
 elcrit_lnd  = 0.0011D0,
 coeffr  = 1.0D0,
 /
 &holtslagparam
 /
 &clm_inparm
 fpftcon = 'pft-physiology.c130503.nc',
 fsnowoptics = 'snicar_optics_5bnd_c090915.nc',
 fsnowaging = 'snicar_drdt_bst_fit_60_c070416.nc',
 /
 &clm_soilhydrology_inparm
 /
 &clm_hydrology1_inparm
 /
