! small European domain
 &dimparam
 iy     = 64,
 jx     = 64,
 kz     = 23,
 dsmin  = 0.005,
 dsmax  = 0.05,
 nsg    = 1,
 /
 &geoparam
 iproj = 'NORMER',
 ds = 3.0,
 ptop = 5.0,
 clat = 0.0,
 clon = 0.0,
 i_band = 1,
 i_crm = 1,
 /
 &terrainparam
 domname = 'crm_test_nh',
 smthbdy = .false.,
 lakedpth = .false.,
 fudge_lnd   = .false.,
 fudge_lnd_s = .false.,
 fudge_tex   = .false.,
 fudge_tex_s = .false.,
 dirter = './input/',
 inpter = '/buffalo/data/',
 /
 &debugparam
 debug_level = 1,
 dbgfrq = 3,
 /
 &boundaryparam
 nspgx  = 12,
 nspgd  = 12,
 /
 &globdatparam
 ibdyfrq = 6,
 ssttyp = 'FIXED',
 dattyp = 'TOGA-COARE',
 gdate1 = 1990060100,
 gdate2 = 1990070100,
 dirglob = './input/',
 inpglob = '/buffalo/data/',
 ensemble_run = .true.,
 /
 &globwindow
 lat0 = 0.0
 lat1 = 0.0
 lon0 = 0.0
 lon1 = 0.0
 /
 &restartparam
 ifrest  = .false. ,
 mdate0  = 1990060100,
 mdate1  = 1990060100,
 mdate2  = 1990060600,
 /
 &timeparam
 dtrad   =    15.,
 dtabem  =    1.,
 dtsrf   =    5.,
 dt      =    5.,
 /
 &outparam
 ifsave  = .true. ,
   savfrq  =    0.,
 ifatm  = .true. ,
   atmfrq  =     0.083333333333333333,
 ifrad   = .true. ,
   radfrq  =     0.25,
 ifsrf   = .true. ,
 ifsub   = .true. ,
   srffrq  =     0.25,
 ifchem  = .false.,
   chemfrq =     0.25,
 dirout='./output/',
 /
 &physicsparam
 iboudy  =          0,
 ibltyp  =          2,
 icup_lnd =         0,
 icup_ocn =         0,
 ipptls  =          1,
 iocnflx =          2,
 ipgf    =          0,
 iemiss  =          0,
 lakemod =          0,
 ichem   =          0,
 scenario = 'A1B',
 idcsst = 0,
 iseaice = 0,
 idesseas = 0,
 iconvlwp = 0,
 /
 &subexparam
 qck1land =   .250E-03,
 qck1oce  =   .250E-03,
 cevaplnd =   .100E-02,
 caccrlnd =      3.000,
 cftotmax =      0.75,
 /
 &grellparam
 /
 &emanparam
 elcrit_ocn  = 0.0011D0,
 elcrit_lnd  = 0.0011D0,
 coeffr  = 1.0D0,
 /
 &holtslagparam
 /
 &clm_inparm
 fpftcon = 'pft-physiology.c130503.nc',
 fsnowoptics = 'snicar_optics_5bnd_c090915.nc',
 fsnowaging = 'snicar_drdt_bst_fit_60_c070416.nc',
 /
 &clm_soilhydrology_inparm
 /
 &clm_hydrology1_inparm
 /
&coreparam
 idynamic = 2
/
!
! Perturbation control for ensembles
!
 &perturbparam
 lperturb_topo = .false.,     ! Add perturbation to surface elevation
 perturb_frac_topo = 0.001D0, ! Fractional value of the perturbation on topo
 lperturb_ts = .false.,       ! Add perturbation to surface temeprature
 perturb_frac_ts = 0.001D0,   ! Fractional value of the perturbation on ts
 lperturb_ps = .false.,       ! Add perturbation to surface pressure
 perturb_frac_ps = 0.001D0,   ! Fractional value of the perturbation on ps
 lperturb_t  = .true.,       ! Add perturbation to temperature
 perturb_frac_t  = 0.001D0,   ! Fractional value of the perturbation on t
 lperturb_q  = .false.,       ! Add perturbation to humidity mixing ratio
 perturb_frac_q  = 0.001D0,   ! Fractional value of the perturbation on q
 lperturb_u  = .false.,       ! Add perturbation to zonal velocity
 perturb_frac_u  = 0.001D0,   ! Fractional value of the perturbation on u
 lperturb_v  = .false.,       ! Add perturbation to meridional velocity
 perturb_frac_v  = 0.001D0,   ! Fractional value of the perturbation on v
 /

